CM Folded Spherical Meander Antenna_Numbers
CE
GW	0	1	0.0207518328941	0.00221773116879	1.27791893491e-18	0.0206381521822	0.0022055822054	0.0021815090284	0.0005
GW	1	1	0.0206381521822	0.0022055822054	0.0021815090284	0.0202571243678	0.00452181719069	0.0021815090284	0.0005
GW	2	1	0.0202571243678	0.00452181719069	0.0021815090284	0.0196169975255	0.00678021581099	0.0021815090284	0.0005
GW	3	1	0.0196169975255	0.00678021581099	0.0021815090284	0.0187259592064	0.00895189198766	0.0021815090284	0.0005
GW	4	1	0.0187259592064	0.00895189198766	0.0021815090284	0.0175954062484	0.0110090688667	0.0021815090284	0.0005
GW	5	1	0.0175954062484	0.0110090688667	0.0021815090284	0.0162397990047	0.0129254340989	0.0021815090284	0.0005
GW	6	1	0.0162397990047	0.0129254340989	0.0021815090284	0.0146764763884	0.0146764763884	0.0021815090284	0.0005
GW	7	1	0.0146764763884	0.0146764763884	0.0021815090284	0.0129254340989	0.0162397990047	0.0021815090284	0.0005
GW	8	1	0.0129254340989	0.0162397990047	0.0021815090284	0.0110090688667	0.0175954062484	0.0021815090284	0.0005
GW	9	1	0.0110090688667	0.0175954062484	0.0021815090284	0.00895189198766	0.0187259592064	0.0021815090284	0.0005
GW	10	1	0.00895189198766	0.0187259592064	0.0021815090284	0.00678021581099	0.0196169975255	0.0021815090284	0.0005
GW	11	1	0.00678021581099	0.0196169975255	0.0021815090284	0.00452181719069	0.0202571243678	0.0021815090284	0.0005
GW	12	1	0.00452181719069	0.0202571243678	0.0021815090284	0.0022055822054	0.0206381521822	0.0021815090284	0.0005
GW	13	1	0.0022055822054	0.0206381521822	0.0021815090284	0.00216926842182	0.0202983555562	0.00433911698737	0.0005
GW	14	1	0.00216926842182	0.0202983555562	0.00433911698737	0.00444736778208	0.01992360117	0.00433911698737	0.0005
GW	15	1	0.00444736778208	0.01992360117	0.00433911698737	0.00666858302352	0.0192940136889	0.00433911698737	0.0005
GW	16	1	0.00666858302352	0.0192940136889	0.00433911698737	0.00880450366205	0.0184176458603	0.00433911698737	0.0005
GW	17	1	0.00880450366205	0.0184176458603	0.00433911698737	0.0108278101753	0.0173057068789	0.00433911698737	0.0005
GW	18	1	0.0108278101753	0.0173057068789	0.00433911698737	0.0127126234336	0.0159724190155	0.00433911698737	0.0005
GW	19	1	0.0127126234336	0.0159724190155	0.00433911698737	0.0144348357069	0.0144348357069	0.00433911698737	0.0005
GW	20	1	0.0144348357069	0.0144348357069	0.00433911698737	0.0159724190155	0.0127126234336	0.00433911698737	0.0005
GW	21	1	0.0159724190155	0.0127126234336	0.00433911698737	0.0173057068789	0.0108278101753	0.00433911698737	0.0005
GW	22	1	0.0173057068789	0.0108278101753	0.00433911698737	0.0184176458603	0.00880450366205	0.00433911698737	0.0005
GW	23	1	0.0184176458603	0.00880450366205	0.00433911698737	0.0192940136889	0.00666858302352	0.00433911698737	0.0005
GW	24	1	0.0192940136889	0.00666858302352	0.00433911698737	0.01992360117	0.00444736778208	0.00433911698737	0.0005
GW	25	1	0.01992360117	0.00444736778208	0.00433911698737	0.0202983555562	0.00216926842182	0.00433911698737	0.0005
GW	26	1	0.0202983555562	0.00216926842182	0.00433911698737	0.019736165899	0.00210918767947	0.00644918467261	0.0005
GW	27	1	0.019736165899	0.00210918767947	0.00644918467261	0.0193717908285	0.00432419208137	0.00644918467261	0.0005
GW	28	1	0.0193717908285	0.00432419208137	0.00644918467261	0.0187596406008	0.00648388784496	0.00644918467261	0.0005
GW	29	1	0.0187596406008	0.00648388784496	0.00644918467261	0.017907544932	0.00856065135185	0.00644918467261	0.0005
GW	30	1	0.017907544932	0.00856065135185	0.00644918467261	0.0168264025633	0.0105279197298	0.00644918467261	0.0005
GW	31	1	0.0168264025633	0.0105279197298	0.00644918467261	0.015530041861	0.0123605306057	0.00644918467261	0.0005
GW	32	1	0.015530041861	0.0123605306057	0.00644918467261	0.0140350439447	0.0140350439447	0.00644918467261	0.0005
GW	33	1	0.0140350439447	0.0140350439447	0.00644918467261	0.0123605306057	0.015530041861	0.00644918467261	0.0005
GW	34	1	0.0123605306057	0.015530041861	0.00644918467261	0.0105279197298	0.0168264025633	0.00644918467261	0.0005
GW	35	1	0.0105279197298	0.0168264025633	0.00644918467261	0.00856065135185	0.017907544932	0.00644918467261	0.0005
GW	36	1	0.00856065135185	0.017907544932	0.00644918467261	0.00648388784496	0.0187596406008	0.00644918467261	0.0005
GW	37	1	0.00648388784496	0.0187596406008	0.00644918467261	0.00432419208137	0.0193717908285	0.00644918467261	0.0005
GW	38	1	0.00432419208137	0.0193717908285	0.00644918467261	0.00210918767947	0.019736165899	0.00644918467261	0.0005
GW	39	1	0.00210918767947	0.019736165899	0.00644918467261	0.00202599823552	0.0189577426781	0.00848859374099	0.0005
GW	40	1	0.00202599823552	0.0189577426781	0.00848859374099	0.00434483178206	0.018564027394	0.00848859374099	0.0005
GW	41	1	0.00434483178206	0.018564027394	0.00848859374099	0.00659754272084	0.0178877921038	0.00848859374099	0.0005
GW	42	1	0.00659754272084	0.0178877921038	0.00848859374099	0.00874984776328	0.0169393282163	0.00848859374099	0.0005
GW	43	1	0.00874984776328	0.0169393282163	0.00848859374099	0.0107689916661	0.0157330701008	0.00848859374099	0.0005
GW	44	1	0.0107689916661	0.0157330701008	0.00848859374099	0.0126242457228	0.0142873754143	0.00848859374099	0.0005
GW	45	1	0.0126242457228	0.0142873754143	0.00848859374099	0.0142873754143	0.0126242457228	0.00848859374099	0.0005
GW	46	1	0.0142873754143	0.0126242457228	0.00848859374099	0.0157330701008	0.0107689916661	0.00848859374099	0.0005
GW	47	1	0.0157330701008	0.0107689916661	0.00848859374099	0.0169393282163	0.00874984776328	0.00848859374099	0.0005
GW	48	1	0.0169393282163	0.00874984776328	0.00848859374099	0.0178877921038	0.00659754272084	0.00848859374099	0.0005
GW	49	1	0.0178877921038	0.00659754272084	0.00848859374099	0.018564027394	0.00434483178206	0.00848859374099	0.0005
GW	50	1	0.018564027394	0.00434483178206	0.00848859374099	0.0189577426781	0.00202599823552	0.00848859374099	0.0005
GW	51	1	0.0189577426781	0.00202599823552	0.00848859374099	0.0179716144613	0.00192061153093	0.010435	0.0005
GW	52	1	0.0179716144613	0.00192061153093	0.010435	0.017598379134	0.0041188259073	0.010435	0.0005
GW	53	1	0.017598379134	0.0041188259073	0.010435	0.0169573196931	0.00625435718716	0.010435	0.0005
GW	54	1	0.0169573196931	0.00625435718716	0.010435	0.0160581922176	0.00829470540174	0.010435	0.0005
GW	55	1	0.0160581922176	0.00829470540174	0.010435	0.0149146802415	0.010208819143	0.010435	0.0005
GW	56	1	0.0149146802415	0.010208819143	0.010435	0.0135441865084	0.011967568125	0.010435	0.0005
GW	57	1	0.0135441865084	0.011967568125	0.010435	0.011967568125	0.0135441865084	0.010435	0.0005
GW	58	1	0.011967568125	0.0135441865084	0.010435	0.010208819143	0.0149146802415	0.010435	0.0005
GW	59	1	0.010208819143	0.0149146802415	0.010435	0.00829470540174	0.0160581922176	0.010435	0.0005
GW	60	1	0.00829470540174	0.0160581922176	0.010435	0.00625435718716	0.0169573196931	0.010435	0.0005
GW	61	1	0.00625435718716	0.0169573196931	0.010435	0.0041188259073	0.017598379134	0.010435	0.0005
GW	62	1	0.0041188259073	0.017598379134	0.010435	0.00192061153093	0.0179716144613	0.010435	0.0005
GW	63	1	0.00192061153093	0.0179716144613	0.010435	0.0017941822045	0.0167885854757	0.0122670782153	0.0005
GW	64	1	0.0017941822045	0.0167885854757	0.0122670782153	0.0040503332815	0.0163911711713	0.0122670782153	0.0005
GW	65	1	0.0040503332815	0.0163911711713	0.0122670782153	0.00623191896852	0.015692000447	0.0122670782153	0.0005
GW	66	1	0.00623191896852	0.015692000447	0.0122670782153	0.00829877694405	0.0147039448207	0.0122670782153	0.0005
GW	67	1	0.00829877694405	0.0147039448207	0.0122670782153	0.0102128569884	0.0134451940928	0.0122670782153	0.0005
GW	68	1	0.0102128569884	0.0134451940928	0.0122670782153	0.0119389214768	0.0119389214768	0.0122670782153	0.0005
GW	69	1	0.0119389214768	0.0119389214768	0.0122670782153	0.0134451940928	0.0102128569884	0.0122670782153	0.0005
GW	70	1	0.0134451940928	0.0102128569884	0.0122670782153	0.0147039448207	0.00829877694405	0.0122670782153	0.0005
GW	71	1	0.0147039448207	0.00829877694405	0.0122670782153	0.015692000447	0.00623191896852	0.0122670782153	0.0005
GW	72	1	0.015692000447	0.00623191896852	0.0122670782153	0.0163911711713	0.0040503332815	0.0122670782153	0.0005
GW	73	1	0.0163911711713	0.0040503332815	0.0122670782153	0.0167885854757	0.0017941822045	0.0122670782153	0.0005
GW	74	1	0.0167885854757	0.0017941822045	0.0122670782153	0.0154216172344	0.00164809544238	0.0139647557547	0.0005
GW	75	1	0.0154216172344	0.00164809544238	0.0139647557547	0.0149987165308	0.00394727743399	0.0139647557547	0.0005
GW	76	1	0.0149987165308	0.00394727743399	0.0139647557547	0.0142350476494	0.00615677798283	0.0139647557547	0.0005
GW	77	1	0.0142350476494	0.00615677798283	0.0139647557547	0.0131479610118	0.00822639762855	0.0139647557547	0.0005
GW	78	1	0.0131479610118	0.00822639762855	0.0139647557547	0.0117621550334	0.0101091149801	0.0139647557547	0.0005
GW	79	1	0.0117621550334	0.0101091149801	0.0139647557547	0.0101091149801	0.0117621550334	0.0139647557547	0.0005
GW	80	1	0.0101091149801	0.0117621550334	0.0139647557547	0.00822639762855	0.0131479610118	0.0139647557547	0.0005
GW	81	1	0.00822639762855	0.0131479610118	0.0139647557547	0.00615677798283	0.0142350476494	0.0139647557547	0.0005
GW	82	1	0.00615677798283	0.0142350476494	0.0139647557547	0.00394727743399	0.0149987165308	0.0139647557547	0.0005
GW	83	1	0.00394727743399	0.0149987165308	0.0139647557547	0.00164809544238	0.0154216172344	0.0139647557547	0.0005
GW	84	1	0.00164809544238	0.0154216172344	0.0139647557547	0.00148395180171	0.0138856865275	0.0155094325077	0.0005
GW	85	1	0.00148395180171	0.0138856865275	0.0155094325077	0.00380818984267	0.0134354789052	0.0155094325077	0.0005
GW	86	1	0.00380818984267	0.0134354789052	0.0155094325077	0.00602297942525	0.0125991318007	0.0155094325077	0.0005
GW	87	1	0.00602297942525	0.0125991318007	0.0155094325077	0.00806466686739	0.0114006820676	0.0155094325077	0.0005
GW	88	1	0.00806466686739	0.0114006820676	0.0155094325077	0.00987457349177	0.00987457349177	0.0155094325077	0.0005
GW	89	1	0.00987457349177	0.00987457349177	0.0155094325077	0.0114006820676	0.00806466686739	0.0155094325077	0.0005
GW	90	1	0.0114006820676	0.00806466686739	0.0155094325077	0.0125991318007	0.00602297942525	0.0155094325077	0.0005
GW	91	1	0.0125991318007	0.00602297942525	0.0155094325077	0.0134354789052	0.00380818984267	0.0155094325077	0.0005
GW	92	1	0.0134354789052	0.00380818984267	0.0155094325077	0.0138856865275	0.00148395180171	0.0155094325077	0.0005
GW	93	1	0.0138856865275	0.00148395180171	0.0155094325077	0.0121976213332	0.00130354967456	0.0168841846726	0.0005
GW	94	1	0.0121976213332	0.00130354967456	0.0168841846726	0.0117175695733	0.00363039546546	0.0168841846726	0.0005
GW	95	1	0.0117175695733	0.00363039546546	0.0168841846726	0.010797983142	0.00582106244655	0.0168841846726	0.0005
GW	96	1	0.010797983142	0.00582106244655	0.0168841846726	0.00947335640401	0.00779337708468	0.0168841846726	0.0005
GW	97	1	0.00947335640401	0.00779337708468	0.0168841846726	0.00779337708468	0.00947335640401	0.0168841846726	0.0005
GW	98	1	0.00779337708468	0.00947335640401	0.0168841846726	0.00582106244655	0.010797983142	0.0168841846726	0.0005
GW	99	1	0.00582106244655	0.010797983142	0.0168841846726	0.00363039546546	0.0117175695733	0.0168841846726	0.0005
GW	100	1	0.00363039546546	0.0117175695733	0.0168841846726	0.00130354967456	0.0121976213332	0.0168841846726	0.0005
GW	101	1	0.00130354967456	0.0121976213332	0.0168841846726	0.00110886558439	0.010375916447	0.018073950177	0.0005
GW	102	1	0.00110886558439	0.010375916447	0.018073950177	0.00340878156759	0.00986252671603	0.018073950177	0.0005
GW	103	1	0.00340878156759	0.00986252671603	0.018073950177	0.00553485494787	0.00884616333254	0.018073950177	0.0005
GW	104	1	0.00553485494787	0.00884616333254	0.018073950177	0.00737865926168	0.00737865926168	0.018073950177	0.0005
GW	105	1	0.00737865926168	0.00737865926168	0.018073950177	0.00884616333254	0.00553485494787	0.018073950177	0.0005
GW	106	1	0.00884616333254	0.00553485494787	0.018073950177	0.00986252671603	0.00340878156759	0.018073950177	0.0005
GW	107	1	0.00986252671603	0.00340878156759	0.018073950177	0.010375916447	0.00110886558439	0.018073950177	0.0005
GW	108	1	0.010375916447	0.00110886558439	0.018073950177	0.008440530849	0.000902032530837	0.019065693701	0.0005
GW	109	1	0.008440530849	0.000902032530837	0.019065693701	0.00788921818618	0.00313312306021	0.019065693701	0.0005
GW	110	1	0.00788921818618	0.00313312306021	0.019065693701	0.00675962699031	0.00513455612994	0.019065693701	0.0005
GW	111	1	0.00675962699031	0.00513455612994	0.019065693701	0.00513455612994	0.00675962699031	0.019065693701	0.0005
GW	112	1	0.00513455612994	0.00675962699031	0.019065693701	0.00313312306021	0.00788921818618	0.019065693701	0.0005
GW	113	1	0.00313312306021	0.00788921818618	0.019065693701	0.000902032530837	0.008440530849	0.019065693701	0.0005
GW	114	1	0.000902032530837	0.008440530849	0.019065693701	0.00068531662011	0.00641266902869	0.0198485494951	0.0005
GW	115	1	0.00068531662011	0.00641266902869	0.0198485494951	0.0027815242368	0.00581851405957	0.0198485494951	0.0005
GW	116	1	0.0027815242368	0.00581851405957	0.0198485494951	0.00456026221512	0.00456026221512	0.0198485494951	0.0005
GW	117	1	0.00456026221512	0.00456026221512	0.0198485494951	0.00581851405957	0.0027815242368	0.0198485494951	0.0005
GW	118	1	0.00581851405957	0.0027815242368	0.0198485494951	0.00641266902869	0.00068531662011	0.0198485494951	0.0005
GW	119	1	0.00641266902869	0.00068531662011	0.0198485494951	0.00431454866457	0.000461092237082	0.0204139404273	0.0005
GW	120	1	0.00431454866457	0.000461092237082	0.0204139404273	0.00306821904613	0.00306821904613	0.0204139404273	0.0005
GW	121	1	0.00306821904613	0.00306821904613	0.0204139404273	0.000461092237082	0.00431454866457	0.0204139404273	0.0005
GW	122	1	0.000461092237082	0.00431454866457	0.0204139404273	0.000231816031014	0.0021691572024	0.0207556719563	0.0005
GW	123	1	-0.00221773116879	0.0207518328941	1.27791893491e-18	-0.0022055822054	0.0206381521822	0.0021815090284	0.0005
GW	124	1	-0.0022055822054	0.0206381521822	0.0021815090284	-0.00452181719069	0.0202571243678	0.0021815090284	0.0005
GW	125	1	-0.00452181719069	0.0202571243678	0.0021815090284	-0.00678021581099	0.0196169975255	0.0021815090284	0.0005
GW	126	1	-0.00678021581099	0.0196169975255	0.0021815090284	-0.00895189198766	0.0187259592064	0.0021815090284	0.0005
GW	127	1	-0.00895189198766	0.0187259592064	0.0021815090284	-0.0110090688667	0.0175954062484	0.0021815090284	0.0005
GW	128	1	-0.0110090688667	0.0175954062484	0.0021815090284	-0.0129254340989	0.0162397990047	0.0021815090284	0.0005
GW	129	1	-0.0129254340989	0.0162397990047	0.0021815090284	-0.0146764763884	0.0146764763884	0.0021815090284	0.0005
GW	130	1	-0.0146764763884	0.0146764763884	0.0021815090284	-0.0162397990047	0.0129254340989	0.0021815090284	0.0005
GW	131	1	-0.0162397990047	0.0129254340989	0.0021815090284	-0.0175954062484	0.0110090688667	0.0021815090284	0.0005
GW	132	1	-0.0175954062484	0.0110090688667	0.0021815090284	-0.0187259592064	0.00895189198766	0.0021815090284	0.0005
GW	133	1	-0.0187259592064	0.00895189198766	0.0021815090284	-0.0196169975255	0.00678021581099	0.0021815090284	0.0005
GW	134	1	-0.0196169975255	0.00678021581099	0.0021815090284	-0.0202571243678	0.00452181719069	0.0021815090284	0.0005
GW	135	1	-0.0202571243678	0.00452181719069	0.0021815090284	-0.0206381521822	0.0022055822054	0.0021815090284	0.0005
GW	136	1	-0.0206381521822	0.0022055822054	0.0021815090284	-0.0202983555562	0.00216926842182	0.00433911698737	0.0005
GW	137	1	-0.0202983555562	0.00216926842182	0.00433911698737	-0.01992360117	0.00444736778208	0.00433911698737	0.0005
GW	138	1	-0.01992360117	0.00444736778208	0.00433911698737	-0.0192940136889	0.00666858302352	0.00433911698737	0.0005
GW	139	1	-0.0192940136889	0.00666858302352	0.00433911698737	-0.0184176458603	0.00880450366205	0.00433911698737	0.0005
GW	140	1	-0.0184176458603	0.00880450366205	0.00433911698737	-0.0173057068789	0.0108278101753	0.00433911698737	0.0005
GW	141	1	-0.0173057068789	0.0108278101753	0.00433911698737	-0.0159724190155	0.0127126234336	0.00433911698737	0.0005
GW	142	1	-0.0159724190155	0.0127126234336	0.00433911698737	-0.0144348357069	0.0144348357069	0.00433911698737	0.0005
GW	143	1	-0.0144348357069	0.0144348357069	0.00433911698737	-0.0127126234336	0.0159724190155	0.00433911698737	0.0005
GW	144	1	-0.0127126234336	0.0159724190155	0.00433911698737	-0.0108278101753	0.0173057068789	0.00433911698737	0.0005
GW	145	1	-0.0108278101753	0.0173057068789	0.00433911698737	-0.00880450366205	0.0184176458603	0.00433911698737	0.0005
GW	146	1	-0.00880450366205	0.0184176458603	0.00433911698737	-0.00666858302352	0.0192940136889	0.00433911698737	0.0005
GW	147	1	-0.00666858302352	0.0192940136889	0.00433911698737	-0.00444736778208	0.01992360117	0.00433911698737	0.0005
GW	148	1	-0.00444736778208	0.01992360117	0.00433911698737	-0.00216926842182	0.0202983555562	0.00433911698737	0.0005
GW	149	1	-0.00216926842182	0.0202983555562	0.00433911698737	-0.00210918767947	0.019736165899	0.00644918467261	0.0005
GW	150	1	-0.00210918767947	0.019736165899	0.00644918467261	-0.00432419208137	0.0193717908285	0.00644918467261	0.0005
GW	151	1	-0.00432419208137	0.0193717908285	0.00644918467261	-0.00648388784496	0.0187596406008	0.00644918467261	0.0005
GW	152	1	-0.00648388784496	0.0187596406008	0.00644918467261	-0.00856065135185	0.017907544932	0.00644918467261	0.0005
GW	153	1	-0.00856065135185	0.017907544932	0.00644918467261	-0.0105279197298	0.0168264025633	0.00644918467261	0.0005
GW	154	1	-0.0105279197298	0.0168264025633	0.00644918467261	-0.0123605306057	0.015530041861	0.00644918467261	0.0005
GW	155	1	-0.0123605306057	0.015530041861	0.00644918467261	-0.0140350439447	0.0140350439447	0.00644918467261	0.0005
GW	156	1	-0.0140350439447	0.0140350439447	0.00644918467261	-0.015530041861	0.0123605306057	0.00644918467261	0.0005
GW	157	1	-0.015530041861	0.0123605306057	0.00644918467261	-0.0168264025633	0.0105279197298	0.00644918467261	0.0005
GW	158	1	-0.0168264025633	0.0105279197298	0.00644918467261	-0.017907544932	0.00856065135185	0.00644918467261	0.0005
GW	159	1	-0.017907544932	0.00856065135185	0.00644918467261	-0.0187596406008	0.00648388784496	0.00644918467261	0.0005
GW	160	1	-0.0187596406008	0.00648388784496	0.00644918467261	-0.0193717908285	0.00432419208137	0.00644918467261	0.0005
GW	161	1	-0.0193717908285	0.00432419208137	0.00644918467261	-0.019736165899	0.00210918767947	0.00644918467261	0.0005
GW	162	1	-0.019736165899	0.00210918767947	0.00644918467261	-0.0189577426781	0.00202599823552	0.00848859374099	0.0005
GW	163	1	-0.0189577426781	0.00202599823552	0.00848859374099	-0.018564027394	0.00434483178206	0.00848859374099	0.0005
GW	164	1	-0.018564027394	0.00434483178206	0.00848859374099	-0.0178877921038	0.00659754272084	0.00848859374099	0.0005
GW	165	1	-0.0178877921038	0.00659754272084	0.00848859374099	-0.0169393282163	0.00874984776328	0.00848859374099	0.0005
GW	166	1	-0.0169393282163	0.00874984776328	0.00848859374099	-0.0157330701008	0.0107689916661	0.00848859374099	0.0005
GW	167	1	-0.0157330701008	0.0107689916661	0.00848859374099	-0.0142873754143	0.0126242457228	0.00848859374099	0.0005
GW	168	1	-0.0142873754143	0.0126242457228	0.00848859374099	-0.0126242457228	0.0142873754143	0.00848859374099	0.0005
GW	169	1	-0.0126242457228	0.0142873754143	0.00848859374099	-0.0107689916661	0.0157330701008	0.00848859374099	0.0005
GW	170	1	-0.0107689916661	0.0157330701008	0.00848859374099	-0.00874984776328	0.0169393282163	0.00848859374099	0.0005
GW	171	1	-0.00874984776328	0.0169393282163	0.00848859374099	-0.00659754272084	0.0178877921038	0.00848859374099	0.0005
GW	172	1	-0.00659754272084	0.0178877921038	0.00848859374099	-0.00434483178206	0.018564027394	0.00848859374099	0.0005
GW	173	1	-0.00434483178206	0.018564027394	0.00848859374099	-0.00202599823552	0.0189577426781	0.00848859374099	0.0005
GW	174	1	-0.00202599823552	0.0189577426781	0.00848859374099	-0.00192061153093	0.0179716144613	0.010435	0.0005
GW	175	1	-0.00192061153093	0.0179716144613	0.010435	-0.0041188259073	0.017598379134	0.010435	0.0005
GW	176	1	-0.0041188259073	0.017598379134	0.010435	-0.00625435718716	0.0169573196931	0.010435	0.0005
GW	177	1	-0.00625435718716	0.0169573196931	0.010435	-0.00829470540174	0.0160581922176	0.010435	0.0005
GW	178	1	-0.00829470540174	0.0160581922176	0.010435	-0.010208819143	0.0149146802415	0.010435	0.0005
GW	179	1	-0.010208819143	0.0149146802415	0.010435	-0.011967568125	0.0135441865084	0.010435	0.0005
GW	180	1	-0.011967568125	0.0135441865084	0.010435	-0.0135441865084	0.011967568125	0.010435	0.0005
GW	181	1	-0.0135441865084	0.011967568125	0.010435	-0.0149146802415	0.010208819143	0.010435	0.0005
GW	182	1	-0.0149146802415	0.010208819143	0.010435	-0.0160581922176	0.00829470540174	0.010435	0.0005
GW	183	1	-0.0160581922176	0.00829470540174	0.010435	-0.0169573196931	0.00625435718716	0.010435	0.0005
GW	184	1	-0.0169573196931	0.00625435718716	0.010435	-0.017598379134	0.0041188259073	0.010435	0.0005
GW	185	1	-0.017598379134	0.0041188259073	0.010435	-0.0179716144613	0.00192061153093	0.010435	0.0005
GW	186	1	-0.0179716144613	0.00192061153093	0.010435	-0.0167885854757	0.0017941822045	0.0122670782153	0.0005
GW	187	1	-0.0167885854757	0.0017941822045	0.0122670782153	-0.0163911711713	0.0040503332815	0.0122670782153	0.0005
GW	188	1	-0.0163911711713	0.0040503332815	0.0122670782153	-0.015692000447	0.00623191896852	0.0122670782153	0.0005
GW	189	1	-0.015692000447	0.00623191896852	0.0122670782153	-0.0147039448207	0.00829877694405	0.0122670782153	0.0005
GW	190	1	-0.0147039448207	0.00829877694405	0.0122670782153	-0.0134451940928	0.0102128569884	0.0122670782153	0.0005
GW	191	1	-0.0134451940928	0.0102128569884	0.0122670782153	-0.0119389214768	0.0119389214768	0.0122670782153	0.0005
GW	192	1	-0.0119389214768	0.0119389214768	0.0122670782153	-0.0102128569884	0.0134451940928	0.0122670782153	0.0005
GW	193	1	-0.0102128569884	0.0134451940928	0.0122670782153	-0.00829877694405	0.0147039448207	0.0122670782153	0.0005
GW	194	1	-0.00829877694405	0.0147039448207	0.0122670782153	-0.00623191896852	0.015692000447	0.0122670782153	0.0005
GW	195	1	-0.00623191896852	0.015692000447	0.0122670782153	-0.0040503332815	0.0163911711713	0.0122670782153	0.0005
GW	196	1	-0.0040503332815	0.0163911711713	0.0122670782153	-0.0017941822045	0.0167885854757	0.0122670782153	0.0005
GW	197	1	-0.0017941822045	0.0167885854757	0.0122670782153	-0.00164809544238	0.0154216172344	0.0139647557547	0.0005
GW	198	1	-0.00164809544238	0.0154216172344	0.0139647557547	-0.00394727743399	0.0149987165308	0.0139647557547	0.0005
GW	199	1	-0.00394727743399	0.0149987165308	0.0139647557547	-0.00615677798283	0.0142350476494	0.0139647557547	0.0005
GW	200	1	-0.00615677798283	0.0142350476494	0.0139647557547	-0.00822639762855	0.0131479610118	0.0139647557547	0.0005
GW	201	1	-0.00822639762855	0.0131479610118	0.0139647557547	-0.0101091149801	0.0117621550334	0.0139647557547	0.0005
GW	202	1	-0.0101091149801	0.0117621550334	0.0139647557547	-0.0117621550334	0.0101091149801	0.0139647557547	0.0005
GW	203	1	-0.0117621550334	0.0101091149801	0.0139647557547	-0.0131479610118	0.00822639762855	0.0139647557547	0.0005
GW	204	1	-0.0131479610118	0.00822639762855	0.0139647557547	-0.0142350476494	0.00615677798283	0.0139647557547	0.0005
GW	205	1	-0.0142350476494	0.00615677798283	0.0139647557547	-0.0149987165308	0.00394727743399	0.0139647557547	0.0005
GW	206	1	-0.0149987165308	0.00394727743399	0.0139647557547	-0.0154216172344	0.00164809544238	0.0139647557547	0.0005
GW	207	1	-0.0154216172344	0.00164809544238	0.0139647557547	-0.0138856865275	0.00148395180171	0.0155094325077	0.0005
GW	208	1	-0.0138856865275	0.00148395180171	0.0155094325077	-0.0134354789052	0.00380818984267	0.0155094325077	0.0005
GW	209	1	-0.0134354789052	0.00380818984267	0.0155094325077	-0.0125991318007	0.00602297942525	0.0155094325077	0.0005
GW	210	1	-0.0125991318007	0.00602297942525	0.0155094325077	-0.0114006820676	0.00806466686739	0.0155094325077	0.0005
GW	211	1	-0.0114006820676	0.00806466686739	0.0155094325077	-0.00987457349177	0.00987457349177	0.0155094325077	0.0005
GW	212	1	-0.00987457349177	0.00987457349177	0.0155094325077	-0.00806466686739	0.0114006820676	0.0155094325077	0.0005
GW	213	1	-0.00806466686739	0.0114006820676	0.0155094325077	-0.00602297942525	0.0125991318007	0.0155094325077	0.0005
GW	214	1	-0.00602297942525	0.0125991318007	0.0155094325077	-0.00380818984267	0.0134354789052	0.0155094325077	0.0005
GW	215	1	-0.00380818984267	0.0134354789052	0.0155094325077	-0.00148395180171	0.0138856865275	0.0155094325077	0.0005
GW	216	1	-0.00148395180171	0.0138856865275	0.0155094325077	-0.00130354967456	0.0121976213332	0.0168841846726	0.0005
GW	217	1	-0.00130354967456	0.0121976213332	0.0168841846726	-0.00363039546546	0.0117175695733	0.0168841846726	0.0005
GW	218	1	-0.00363039546546	0.0117175695733	0.0168841846726	-0.00582106244655	0.010797983142	0.0168841846726	0.0005
GW	219	1	-0.00582106244655	0.010797983142	0.0168841846726	-0.00779337708468	0.00947335640401	0.0168841846726	0.0005
GW	220	1	-0.00779337708468	0.00947335640401	0.0168841846726	-0.00947335640401	0.00779337708468	0.0168841846726	0.0005
GW	221	1	-0.00947335640401	0.00779337708468	0.0168841846726	-0.010797983142	0.00582106244655	0.0168841846726	0.0005
GW	222	1	-0.010797983142	0.00582106244655	0.0168841846726	-0.0117175695733	0.00363039546546	0.0168841846726	0.0005
GW	223	1	-0.0117175695733	0.00363039546546	0.0168841846726	-0.0121976213332	0.00130354967456	0.0168841846726	0.0005
GW	224	1	-0.0121976213332	0.00130354967456	0.0168841846726	-0.010375916447	0.00110886558439	0.018073950177	0.0005
GW	225	1	-0.010375916447	0.00110886558439	0.018073950177	-0.00986252671603	0.00340878156759	0.018073950177	0.0005
GW	226	1	-0.00986252671603	0.00340878156759	0.018073950177	-0.00884616333254	0.00553485494787	0.018073950177	0.0005
GW	227	1	-0.00884616333254	0.00553485494787	0.018073950177	-0.00737865926168	0.00737865926168	0.018073950177	0.0005
GW	228	1	-0.00737865926168	0.00737865926168	0.018073950177	-0.00553485494787	0.00884616333254	0.018073950177	0.0005
GW	229	1	-0.00553485494787	0.00884616333254	0.018073950177	-0.00340878156759	0.00986252671603	0.018073950177	0.0005
GW	230	1	-0.00340878156759	0.00986252671603	0.018073950177	-0.00110886558439	0.010375916447	0.018073950177	0.0005
GW	231	1	-0.00110886558439	0.010375916447	0.018073950177	-0.000902032530837	0.008440530849	0.019065693701	0.0005
GW	232	1	-0.000902032530837	0.008440530849	0.019065693701	-0.00313312306021	0.00788921818618	0.019065693701	0.0005
GW	233	1	-0.00313312306021	0.00788921818618	0.019065693701	-0.00513455612994	0.00675962699031	0.019065693701	0.0005
GW	234	1	-0.00513455612994	0.00675962699031	0.019065693701	-0.00675962699031	0.00513455612994	0.019065693701	0.0005
GW	235	1	-0.00675962699031	0.00513455612994	0.019065693701	-0.00788921818618	0.00313312306021	0.019065693701	0.0005
GW	236	1	-0.00788921818618	0.00313312306021	0.019065693701	-0.008440530849	0.000902032530837	0.019065693701	0.0005
GW	237	1	-0.008440530849	0.000902032530837	0.019065693701	-0.00641266902869	0.00068531662011	0.0198485494951	0.0005
GW	238	1	-0.00641266902869	0.00068531662011	0.0198485494951	-0.00581851405957	0.0027815242368	0.0198485494951	0.0005
GW	239	1	-0.00581851405957	0.0027815242368	0.0198485494951	-0.00456026221512	0.00456026221512	0.0198485494951	0.0005
GW	240	1	-0.00456026221512	0.00456026221512	0.0198485494951	-0.0027815242368	0.00581851405957	0.0198485494951	0.0005
GW	241	1	-0.0027815242368	0.00581851405957	0.0198485494951	-0.00068531662011	0.00641266902869	0.0198485494951	0.0005
GW	242	1	-0.00068531662011	0.00641266902869	0.0198485494951	-0.000461092237082	0.00431454866457	0.0204139404273	0.0005
GW	243	1	-0.000461092237082	0.00431454866457	0.0204139404273	-0.00306821904613	0.00306821904613	0.0204139404273	0.0005
GW	244	1	-0.00306821904613	0.00306821904613	0.0204139404273	-0.00431454866457	0.000461092237082	0.0204139404273	0.0005
GW	245	1	-0.00431454866457	0.000461092237082	0.0204139404273	-0.0021691572024	0.000231816031014	0.0207556719563	0.0005
GW	246	1	-0.0207518328941	-0.00221773116879	1.27791893491e-18	-0.0206381521822	-0.0022055822054	0.0021815090284	0.0005
GW	247	1	-0.0206381521822	-0.0022055822054	0.0021815090284	-0.0202571243678	-0.00452181719069	0.0021815090284	0.0005
GW	248	1	-0.0202571243678	-0.00452181719069	0.0021815090284	-0.0196169975255	-0.00678021581099	0.0021815090284	0.0005
GW	249	1	-0.0196169975255	-0.00678021581099	0.0021815090284	-0.0187259592064	-0.00895189198766	0.0021815090284	0.0005
GW	250	1	-0.0187259592064	-0.00895189198766	0.0021815090284	-0.0175954062484	-0.0110090688667	0.0021815090284	0.0005
GW	251	1	-0.0175954062484	-0.0110090688667	0.0021815090284	-0.0162397990047	-0.0129254340989	0.0021815090284	0.0005
GW	252	1	-0.0162397990047	-0.0129254340989	0.0021815090284	-0.0146764763884	-0.0146764763884	0.0021815090284	0.0005
GW	253	1	-0.0146764763884	-0.0146764763884	0.0021815090284	-0.0129254340989	-0.0162397990047	0.0021815090284	0.0005
GW	254	1	-0.0129254340989	-0.0162397990047	0.0021815090284	-0.0110090688667	-0.0175954062484	0.0021815090284	0.0005
GW	255	1	-0.0110090688667	-0.0175954062484	0.0021815090284	-0.00895189198766	-0.0187259592064	0.0021815090284	0.0005
GW	256	1	-0.00895189198766	-0.0187259592064	0.0021815090284	-0.00678021581099	-0.0196169975255	0.0021815090284	0.0005
GW	257	1	-0.00678021581099	-0.0196169975255	0.0021815090284	-0.00452181719069	-0.0202571243678	0.0021815090284	0.0005
GW	258	1	-0.00452181719069	-0.0202571243678	0.0021815090284	-0.0022055822054	-0.0206381521822	0.0021815090284	0.0005
GW	259	1	-0.0022055822054	-0.0206381521822	0.0021815090284	-0.00216926842182	-0.0202983555562	0.00433911698737	0.0005
GW	260	1	-0.00216926842182	-0.0202983555562	0.00433911698737	-0.00444736778208	-0.01992360117	0.00433911698737	0.0005
GW	261	1	-0.00444736778208	-0.01992360117	0.00433911698737	-0.00666858302352	-0.0192940136889	0.00433911698737	0.0005